/*--------------------------------*- C++ -*----------------------------------*\
| =========                 |                                                 |
| \\      /  F ield         | OpenFOAM: The Open Source CFD Toolbox           |
|  \\    /   O peration     | Version:  v1812                                 |
|   \\  /    A nd           | Web:      www.OpenFOAM.com                      |
|    \\/     M anipulation  |                                                 |
\*---------------------------------------------------------------------------*/
FoamFile
{
    version     2.0;
    format      ascii;
    class       volScalarField;
    location    "0";
    object      markedCells;
}
// * * * * * * * * * * * * * * * * * * * * * * * * * * * * * * * * * * * * * //

dimensions      [0 0 0 0 0 0 0];


internalField   uniform 0;

boundaryField
{
    INLET_AIR
    {
		type            zeroGradient;
    }
    INLET_LIQUID
    {
		type            zeroGradient;
    }
    OUTLET
    {
        type            zeroGradient;
    }
    SYMMETRY
    {
        type            symmetry;
    }
    WALL
    {
        type            zeroGradient;
    }
}


// ************************************************************************* //
